Version 4
SHEET 1 1572 1160
WIRE -1056 -368 -1056 -416
WIRE -736 -368 -736 -416
WIRE -608 -368 -608 -416
WIRE 1168 -320 1056 -320
WIRE 1168 -288 1168 -320
WIRE -1056 -256 -1056 -288
WIRE -736 -256 -736 -288
WIRE -608 -256 -608 -288
WIRE 1056 -112 1056 -320
WIRE 1072 -112 1056 -112
WIRE 1232 -112 1152 -112
WIRE 1280 -112 1232 -112
WIRE 1408 -112 1360 -112
WIRE 736 -48 576 -48
WIRE -624 16 -832 16
WIRE -400 16 -560 16
WIRE -16 16 -320 16
WIRE 1312 32 1312 0
WIRE 656 48 656 16
WIRE 1232 48 1232 -112
WIRE 1280 48 1232 48
WIRE -192 64 -240 64
WIRE -16 64 -112 64
WIRE 576 64 576 -48
WIRE 624 64 576 64
WIRE 1408 64 1408 -112
WIRE 1408 64 1344 64
WIRE 1536 64 1408 64
WIRE 736 80 736 -48
WIRE 736 80 688 80
WIRE 816 80 736 80
WIRE 1040 80 816 80
WIRE 1184 80 1120 80
WIRE 1280 80 1184 80
WIRE 112 96 96 96
WIRE 128 96 112 96
WIRE 272 96 208 96
WIRE 384 96 272 96
WIRE 624 96 384 96
WIRE -128 112 -224 112
WIRE -16 112 -48 112
WIRE 1312 128 1312 96
WIRE -832 144 -832 16
WIRE 272 144 272 96
WIRE 384 144 384 96
WIRE 656 144 656 112
WIRE -16 160 -64 160
WIRE 1184 160 1184 80
WIRE 112 192 112 96
WIRE 128 192 112 192
WIRE -160 224 -208 224
WIRE -64 224 -64 160
WIRE -64 224 -80 224
WIRE 32 240 32 208
WIRE 64 240 64 208
WIRE 128 240 128 192
WIRE -832 256 -832 224
WIRE 272 256 272 208
WIRE 384 256 384 224
WIRE 1184 304 1184 240
WIRE 128 336 128 320
WIRE 128 432 128 400
WIRE 608 544 608 496
WIRE -304 592 -304 -544
WIRE 608 672 608 624
WIRE 720 672 608 672
WIRE 608 720 608 672
WIRE 800 768 800 736
WIRE 720 784 720 672
WIRE 768 784 720 784
WIRE 80 800 80 768
WIRE 896 800 832 800
WIRE 960 800 896 800
WIRE 48 816 -16 816
WIRE 768 816 720 816
WIRE 176 832 112 832
WIRE 48 848 -176 848
WIRE 608 848 608 800
WIRE 800 864 800 832
WIRE 80 896 80 864
WIRE 608 976 480 976
WIRE 720 976 720 816
WIRE 720 976 688 976
WIRE 768 976 720 976
WIRE 896 976 896 800
WIRE 896 976 848 976
FLAG 608 848 0
FLAG 608 496 Vcc
FLAG 800 736 Vcc
FLAG 800 864 -Vcc
FLAG -736 -256 0
FLAG -608 -256 0
FLAG -736 -416 Vcc
FLAG -608 -416 -Vcc
FLAG 80 768 Vcc
FLAG 80 896 -Vcc
FLAG -1056 -256 0
FLAG -1056 -416 Vth
FLAG -16 816 Vth
FLAG 272 256 0
FLAG 384 256 0
FLAG 816 80 Vmem
FLAG 480 976 Vmem
FLAG -176 848 Vmem
FLAG 176 832 C0
FLAG 64 240 C0
FLAG 32 240 C1
FLAG 960 800 C1
FLAG -240 64 Vcc
FLAG -224 112 -Vcc
FLAG -208 224 -Vcc
FLAG -832 256 0
FLAG 656 16 Vcc
FLAG 656 144 -Vcc
FLAG 128 432 0
FLAG 1312 0 Vcc
FLAG 1312 128 -Vcc
FLAG 1184 304 0
FLAG 1168 -208 0
SYMBOL AnalogMux 32 96 R0
SYMATTR InstName X1
SYMBOL OpAmps\\UniversalOpAmp2 800 800 R0
SYMATTR InstName U1
SYMBOL res 704 960 R90
WINDOW 0 0 56 VBottom 2
WINDOW 3 32 56 VTop 2
SYMATTR InstName R1
SYMATTR Value 200k
SYMBOL res 864 960 R90
WINDOW 0 0 56 VBottom 2
WINDOW 3 32 56 VTop 2
SYMATTR InstName R2
SYMATTR Value 400k
SYMBOL res 592 528 R0
SYMATTR InstName R3
SYMATTR Value 448k
SYMBOL res 592 704 R0
SYMATTR InstName R4
SYMATTR Value 152k
SYMBOL voltage -736 -384 R0
WINDOW 123 0 0 Left 0
WINDOW 39 0 0 Left 0
SYMATTR InstName V1
SYMATTR Value 5
SYMBOL voltage -608 -384 R0
WINDOW 123 0 0 Left 0
WINDOW 39 0 0 Left 0
SYMATTR InstName V2
SYMATTR Value -5
SYMBOL OpAmps\\UniversalOpAmp2 80 832 R0
SYMATTR InstName U2
SYMBOL voltage -1056 -384 R0
WINDOW 123 0 0 Left 0
WINDOW 39 0 0 Left 0
SYMATTR InstName V3
SYMATTR Value 0.6
SYMBOL cap 256 144 R0
SYMATTR InstName C1
SYMATTR Value 50n
SYMBOL res 368 128 R0
SYMATTR InstName R5
SYMATTR Value 40k
SYMBOL res 224 80 R90
WINDOW 0 0 56 VBottom 2
WINDOW 3 32 56 VTop 2
SYMATTR InstName R6
SYMATTR Value 1k
SYMBOL res -304 0 R90
WINDOW 0 0 56 VBottom 2
WINDOW 3 32 56 VTop 2
SYMATTR InstName R7
SYMATTR Value 3k
SYMBOL voltage -832 128 R0
WINDOW 123 0 0 Left 0
WINDOW 39 0 0 Left 0
SYMATTR InstName V4
SYMATTR Value PULSE(0 2 10m 1n 1n 0.5m 4m 1)
SYMBOL res -64 208 R90
WINDOW 0 0 56 VBottom 2
WINDOW 3 32 56 VTop 2
SYMATTR InstName R9
SYMATTR Value 15k
SYMBOL diode -624 32 R270
WINDOW 0 32 32 VTop 2
WINDOW 3 0 32 VBottom 2
SYMATTR InstName D1
SYMBOL res -32 96 R90
WINDOW 0 0 56 VBottom 2
WINDOW 3 32 56 VTop 2
SYMATTR InstName R10
SYMATTR Value 5k
SYMBOL res -96 48 R90
WINDOW 0 0 56 VBottom 2
WINDOW 3 32 56 VTop 2
SYMATTR InstName R8
SYMATTR Value 2.5k
SYMBOL OpAmps\\UniversalOpAmp2 656 80 R0
SYMATTR InstName U3
SYMBOL cap 112 336 R0
SYMATTR InstName C2
SYMATTR Value 10n
SYMBOL res 112 224 R0
SYMATTR InstName R11
SYMATTR Value 100
SYMBOL OpAmps\\UniversalOpAmp2 1312 64 R0
SYMATTR InstName U4
SYMBOL res 1376 -128 R90
WINDOW 0 0 56 VBottom 2
WINDOW 3 32 56 VTop 2
SYMATTR InstName R12
SYMATTR Value 100k
SYMBOL res 1168 -128 R90
WINDOW 0 0 56 VBottom 2
WINDOW 3 32 56 VTop 2
SYMATTR InstName R13
SYMATTR Value 4Meg
SYMBOL res 1136 64 R90
WINDOW 0 0 56 VBottom 2
WINDOW 3 32 56 VTop 2
SYMATTR InstName R14
SYMATTR Value 4Meg
SYMBOL res 1200 256 R180
WINDOW 0 36 76 Left 2
WINDOW 3 36 40 Left 2
SYMATTR InstName R15
SYMATTR Value 100k
SYMBOL voltage 1168 -304 R0
WINDOW 123 0 0 Left 0
WINDOW 39 0 0 Left 0
SYMATTR InstName V5
SYMATTR Value 2.8
TEXT -752 -192 Left 2 !.tran 100m
TEXT 536 296 Left 2 ;potencijalni problem Roff analog muxa
TEXT 1328 -320 Left 2 ;-2.8V /40 scale back
TEXT -1296 -80 Left 2 ;For more (bursts) output spikes increse Ton time
TEXT -800 -144 Left 2 ;This part of circut is just for simulation
