Version 4
SHEET 1 2884 680
WIRE -928 -128 -928 -208
WIRE -816 -128 -816 -208
WIRE -688 -128 -688 -208
WIRE -928 0 -928 -48
WIRE -816 0 -816 -48
WIRE -816 0 -928 0
WIRE -688 0 -688 -48
WIRE -688 0 -816 0
WIRE -816 32 -816 0
WIRE 80 80 -320 80
WIRE 432 80 432 0
WIRE 432 80 416 80
WIRE 1952 80 1952 0
WIRE 1968 80 1952 80
WIRE 2848 80 2304 80
WIRE 80 112 32 112
WIRE 464 112 464 0
WIRE 464 112 416 112
WIRE 1920 112 1920 0
WIRE 1968 112 1920 112
WIRE 2352 112 2304 112
WIRE -320 128 -320 80
WIRE 2848 128 2848 80
WIRE 32 144 32 112
WIRE 80 144 32 144
WIRE 544 144 416 144
WIRE 848 144 544 144
WIRE 1472 144 1472 80
WIRE 1472 144 1440 144
WIRE 1680 144 1584 144
WIRE 1968 144 1680 144
WIRE 2352 144 2352 112
WIRE 2352 144 2304 144
WIRE 32 176 32 144
WIRE 80 176 32 176
WIRE 704 176 416 176
WIRE 896 176 704 176
WIRE 1776 176 1664 176
WIRE 1968 176 1776 176
WIRE 2352 176 2352 144
WIRE 2352 176 2304 176
WIRE 1536 192 1536 -64
WIRE 1536 192 1440 192
WIRE 32 208 32 176
WIRE 80 208 32 208
WIRE 752 208 416 208
WIRE 1968 208 1760 208
WIRE 2352 208 2352 176
WIRE 2352 208 2304 208
WIRE 848 224 848 144
WIRE 896 224 848 224
WIRE 32 240 32 208
WIRE 80 240 32 240
WIRE 432 240 416 240
WIRE 1584 240 1584 144
WIRE 1584 240 1440 240
WIRE 1968 240 1952 240
WIRE 2352 240 2352 208
WIRE 2352 240 2304 240
WIRE 752 272 752 208
WIRE 896 272 752 272
WIRE 1760 288 1760 208
WIRE 1760 288 1440 288
WIRE 432 320 432 240
WIRE 896 320 752 320
WIRE 1952 320 1952 240
WIRE 1472 336 1440 336
WIRE -320 352 -320 208
WIRE 32 352 32 240
WIRE 2352 352 2352 240
WIRE 2848 352 2848 208
WIRE 1472 384 1472 336
WIRE 752 416 752 320
WIRE 752 576 752 496
FLAG -816 32 0
FLAG -928 -208 Vdd
FLAG -816 -208 Vss
FLAG -688 -208 V3_3
FLAG 464 0 V3_3
FLAG 432 0 Vdd
FLAG 432 320 Vss
FLAG 32 352 0
FLAG -320 352 0
FLAG 1920 0 V3_3
FLAG 1952 0 Vdd
FLAG 1952 320 Vss
FLAG 2352 352 0
FLAG 2848 352 0
FLAG 1472 80 Vdd
FLAG 1472 384 Vss
FLAG 752 576 0
FLAG 752 320 Memristor_Conditioning
FLAG 704 176 Presynaptic_Spike
FLAG 1776 176 Postsynaptic_Spike
FLAG 544 144 Presynaptic_Hebbian
FLAG 1680 144 Postsynaptic_Hebbian
SYMBOL AutoGenerated\\LIF 240 160 R0
SYMATTR InstName X1
SYMBOL voltage -928 -144 R0
WINDOW 123 0 0 Left 0
WINDOW 39 0 0 Left 0
SYMATTR InstName V1
SYMATTR Value 5
SYMBOL voltage -816 -144 R0
WINDOW 123 0 0 Left 0
WINDOW 39 0 0 Left 0
SYMATTR InstName V2
SYMATTR Value -5
SYMBOL voltage -688 -144 R0
WINDOW 123 0 0 Left 0
WINDOW 39 0 0 Left 0
SYMATTR InstName V3
SYMATTR Value 3.3
SYMBOL voltage -320 112 R0
WINDOW 123 0 0 Left 0
WINDOW 39 0 0 Left 0
SYMATTR InstName V4
SYMATTR Value PULSE(0 1 10m 10n 10n 1m 3m 12)
SYMBOL AutoGenerated\\LIF 2144 160 M0
SYMATTR InstName X2
SYMBOL voltage 2848 112 M0
WINDOW 123 0 0 Left 0
WINDOW 39 0 0 Left 0
SYMATTR InstName V5
SYMATTR Value PULSE(0 1 12m 10n 10n 1m 3m 12)
SYMBOL MemristivSynapse 1168 208 R0
SYMATTR InstName X3
SYMBOL res 736 400 R0
SYMATTR InstName R1
SYMATTR Value 100k
TEXT -960 408 Left 2 !.tran 100m startup
